examples/feeders/1_QUEB_1/005_segmentoMT.dss
New Line.SMT_1027 phases=3 bus1=2CF1437.1.2.3 bus2= 651541.1.2.3 linecode=10_3 length=0.11424 units=km
New Line.SMT_1028 phases=3 bus1=651551.1.2.3 bus2= 651561.1.2.3 linecode=10_3 length=0.10872 units=km
New Line.SMT_10612 phases=3 bus1=54471.1.2.3 bus2= 624701.1.2.3 linecode=10_3 length=0.06488 units=km
New Line.SMT_11116 phases=1 bus1=40061.1 bus2= 40071.1 linecode=1_1 length=0.0781 units=km
New Line.SMT_11658 phases=1 bus1=40071.1 bus2= 40081.1 linecode=1_1 length=0.06736 units=km
New Line.SMT_1169 phases=3 bus1=651561.1.2.3 bus2= 651571.1.2.3 linecode=10_3 length=0.12264 units=km
New Line.SMT_1292 phases=1 bus1=497691.3 bus2= 497701.3 linecode=1_1 length=0.10869 units=km
New Line.SMT_1293 phases=1 bus1=497701.3 bus2= 497711.3 linecode=1_1 length=0.10331 units=km
New Line.SMT_13265 phases=3 bus1=397971.1.2.3 bus2= 65871.1.2.3 linecode=10_3 length=0.11459 units=km
New Line.SMT_13294 phases=3 bus1=39951.1.2.3 bus2= 39961.1.2.3 linecode=10_3 length=0.08032 units=km
New Line.SMT_13295 phases=3 bus1=39961.1.2.3 bus2= 39971.1.2.3 linecode=10_3 length=0.07749 units=km
New Line.SMT_13309 phases=3 bus1=55171.1.2.3 bus2= 55181.1.2.3 linecode=10_3 length=0.15344 units=km
New Line.SMT_13310 phases=3 bus1=19801.1.2.3 bus2= 19811.1.2.3 linecode=10_3 length=0.09394 units=km
New Line.SMT_13323 phases=3 bus1=5031.1.2.3 bus2= 5041.1.2.3 linecode=10_3 length=0.10576 units=km
New Line.SMT_13324 phases=3 bus1=5041.1.2.3 bus2= 5061.1.2.3 linecode=10_3 length=0.08169 units=km
New Line.SMT_13325 phases=3 bus1=55181.1.2.3 bus2= 55871.1.2.3 linecode=10_3 length=0.11104 units=km
New Line.SMT_13327 phases=3 bus1=39971.1.2.3 bus2= 40021.1.2.3 linecode=10_3 length=0.08509 units=km
New Line.SMT_13331 phases=3 bus1=65861.1.2.3 bus2= 397971.1.2.3 linecode=10_3 length=0.11259 units=km
New Line.SMT_13339 phases=3 bus1=19811.1.2.3 bus2= 19821.1.2.3 linecode=10_3 length=0.07926 units=km
New Line.SMT_13340 phases=2 bus1=65131.2.3 bus2= 397981.2.3 linecode=18_2 length=0.12442 units=km
New Line.SMT_13344 phases=3 bus1=39261.1.2.3 bus2= 661501.1.2.3 linecode=10_3 length=0.06021 units=km
New Line.SMT_13373 phases=3 bus1=19721.1.2.3 bus2= 19731.1.2.3 linecode=10_3 length=0.14501 units=km
New Line.SMT_13374 phases=3 bus1=2CF1452.1.2.3 bus2= 238071.1.2.3 linecode=13_3 length=0.07981 units=km
New Line.SMT_13384 phases=3 bus1=55131.1.2.3 bus2= 55141.1.2.3 linecode=10_3 length=0.11249 units=km
New Line.SMT_13388 phases=3 bus1=2CS335.1.2.3 bus2= 65251.1.2.3 linecode=10_3 length=0.09207 units=km
New Line.SMT_13389 phases=2 bus1=65011.2.3 bus2= 65021.2.3 linecode=18_2 length=0.09124 units=km
New Line.SMT_13391 phases=3 bus1=65251.1.2.3 bus2= 65261.1.2.3 linecode=10_3 length=0.04144 units=km
New Line.SMT_13392 phases=1 bus1=2FR311.3 bus2= 40981.3 linecode=1_1 length=0.13574 units=km
New Line.SMT_13403 phases=2 bus1=65031.2.3 bus2= 65041.2.3 linecode=18_2 length=0.12714 units=km
New Line.SMT_13404 phases=2 bus1=65041.2.3 bus2= 366611.2.3 linecode=18_2 length=0.03225 units=km
New Line.SMT_13405 phases=1 bus1=40851.2 bus2= 258001.2 linecode=1_1 length=0.12897 units=km
New Line.SMT_13406 phases=1 bus1=40851.2 bus2= 40861.2 linecode=1_1 length=0.07325 units=km
New Line.SMT_13411 phases=3 bus1=55141.1.2.3 bus2= 55151.1.2.3 linecode=10_3 length=0.09621 units=km
New Line.SMT_13478 phases=1 bus1=67701.2 bus2= 813821.2 linecode=1_1 length=0.00337 units=km
New Line.SMT_13479 phases=1 bus1=6291.1 bus2= 12671.1 linecode=1_1 length=0.07029 units=km
New Line.SMT_13495 phases=3 bus1=971.1.2.3 bus2= 660461.1.2.3 linecode=10_3 length=0.11715 units=km
New Line.SMT_13496 phases=1 bus1=40971.3 bus2= 20741.3 linecode=1_1 length=0.00492 units=km
New Line.SMT_13501 phases=3 bus1=19731.1.2.3 bus2= 19741.1.2.3 linecode=10_3 length=0.10024 units=km
New Line.SMT_13525 phases=3 bus1=660461.1.2.3 bus2= 39871.1.2.3 linecode=10_3 length=0.15639 units=km
New Line.SMT_13538 phases=3 bus1=55151.1.2.3 bus2= 55161.1.2.3 linecode=10_3 length=0.1089 units=km
New Line.SMT_13551 phases=3 bus1=19741.1.2.3 bus2= 19771.1.2.3 linecode=10_3 length=0.07071 units=km
New Line.SMT_13552 phases=1 bus1=58051.3 bus2= 327841.3 linecode=1_1 length=0.14521 units=km
New Line.SMT_13554 phases=3 bus1=39981.1.2.3 bus2= 39991.1.2.3 linecode=13_3 length=0.1114 units=km
New Line.SMT_13557 phases=3 bus1=55891.1.2.3 bus2= 55901.1.2.3 linecode=10_3 length=0.10325 units=km
New Line.SMT_13558 phases=1 bus1=58261.3 bus2= 337601.3 linecode=1_1 length=0.08353 units=km
New Line.SMT_13563 phases=1 bus1=41031.3 bus2= 41041.3 linecode=1_1 length=0.1449 units=km
New Line.SMT_13595 phases=3 bus1=1241.1.2.3 bus2= 1251.1.2.3 linecode=10_3 length=0.09082 units=km
New Line.SMT_13608 phases=3 bus1=67701.1.2.3 bus2= 1241.1.2.3 linecode=10_3 length=0.08415 units=km
New Line.SMT_13610 phases=3 bus1=39941.1.2.3 bus2= 39951.1.2.3 linecode=10_3 length=0.07912 units=km
New Line.SMT_13641 phases=3 bus1=1251.1.2.3 bus2= 5031.1.2.3 linecode=10_3 length=0.09044 units=km
New Line.SMT_13669 phases=3 bus1=55971.1.2.3 bus2= 55991.1.2.3 linecode=10_3 length=0.05304 units=km
New Line.SMT_13672 phases=3 bus1=5141.1.2.3 bus2= 65001.1.2.3 linecode=10_3 length=0.11666 units=km
New Line.SMT_13688 phases=1 bus1=12681.1 bus2= 12691.1 linecode=1_1 length=0.06812 units=km
New Line.SMT_13701 phases=3 bus1=39871.1.2.3 bus2= 39881.1.2.3 linecode=10_3 length=0.02702 units=km
New Line.SMT_13709 phases=3 bus1=55911.1.2.3 bus2= 55971.1.2.3 linecode=10_3 length=0.07489 units=km
New Line.SMT_13710 phases=1 bus1=337611.3 bus2= 337621.3 linecode=1_1 length=0.08343 units=km
New Line.SMT_13725 phases=2 bus1=58001.3.1 bus2= 58011.3.1 linecode=18_2 length=0.09578 units=km
New Line.SMT_13730 phases=1 bus1=321961.3 bus2= 321971.3 linecode=1_1 length=0.10114 units=km
New Line.SMT_13742 phases=3 bus1=40021.1.2.3 bus2= 40031.1.2.3 linecode=10_3 length=0.0769 units=km
New Line.SMT_13744 phases=3 bus1=67541.1.2.3 bus2= 67551.1.2.3 linecode=10_3 length=0.09278 units=km
New Line.SMT_13745 phases=3 bus1=67551.1.2.3 bus2= 67561.1.2.3 linecode=10_3 length=0.10013 units=km
New Line.SMT_13750 phases=3 bus1=57901.1.2.3 bus2= 57911.1.2.3 linecode=10_3 length=0.0992 units=km
New Line.SMT_13757 phases=3 bus1=67561.1.2.3 bus2= 67601.1.2.3 linecode=10_3 length=0.1171 units=km
New Line.SMT_13762 phases=2 bus1=65021.2.3 bus2= 65031.2.3 linecode=18_2 length=0.09762 units=km
New Line.SMT_13775 phases=1 bus1=40981.3 bus2= 40991.3 linecode=1_1 length=0.13238 units=km
New Line.SMT_13776 phases=1 bus1=40031.2 bus2= 20731.2 linecode=1_1 length=0.00268 units=km
New Line.SMT_13785 phases=1 bus1=12671.1 bus2= 12681.1 linecode=1_1 length=0.1588 units=km
New Line.SMT_13786 phases=1 bus1=39871.3 bus2= 321961.3 linecode=1_1 length=0.15968 units=km
New Line.SMT_13807 phases=3 bus1=660501.1.2.3 bus2= 39981.1.2.3 linecode=13_3 length=0.05054 units=km
New Line.SMT_13814 phases=3 bus1=55881.1.2.3 bus2= 55891.1.2.3 linecode=10_3 length=0.08905 units=km
New Line.SMT_13828 phases=1 bus1=321971.3 bus2= 39901.3 linecode=1_1 length=0.10277 units=km
New Line.SMT_13830 phases=1 bus1=12691.1 bus2= 73231.1 linecode=1_1 length=0.07925 units=km
New Line.SMT_13831 phases=3 bus1=39881.1.2.3 bus2= 39891.1.2.3 linecode=10_3 length=0.08888 units=km
New Line.SMT_13870 phases=3 bus1=55871.1.2.3 bus2= 55881.1.2.3 linecode=10_3 length=0.10102 units=km
New Line.SMT_13871 phases=3 bus1=19821.1.2.3 bus2= 54471.1.2.3 linecode=10_3 length=0.05608 units=km
New Line.SMT_13880 phases=3 bus1=19741.1.2.3 bus2= 664121.1.2.3 linecode=10_3 length=0.00488 units=km
New Line.SMT_13892 phases=3 bus1=5111.1.2.3 bus2= 5121.1.2.3 linecode=10_3 length=0.09719 units=km
New Line.SMT_13907 phases=3 bus1=5121.1.2.3 bus2= 5131.1.2.3 linecode=10_3 length=0.10667 units=km
New Line.SMT_13921 phases=1 bus1=73231.1 bus2= 73241.1 linecode=1_1 length=0.17752 units=km
New Line.SMT_13965 phases=3 bus1=39891.1.2.3 bus2= 39911.1.2.3 linecode=10_3 length=0.0757 units=km
New Line.SMT_13978 phases=3 bus1=39911.1.2.3 bus2= 39921.1.2.3 linecode=10_3 length=0.10259 units=km
New Line.SMT_13994 phases=3 bus1=58261.1.2.3 bus2= 57891.1.2.3 linecode=10_3 length=0.10065 units=km
New Line.SMT_14009 phases=3 bus1=55901.1.2.3 bus2= 55911.1.2.3 linecode=10_3 length=0.09621 units=km
New Line.SMT_14010 phases=1 bus1=337601.3 bus2= 337611.3 linecode=1_1 length=0.40085 units=km
New Line.SMT_14035 phases=3 bus1=57891.1.2.3 bus2= 57901.1.2.3 linecode=10_3 length=0.13483 units=km
New Line.SMT_14038 phases=1 bus1=41021.3 bus2= 41031.3 linecode=1_1 length=0.19597 units=km
New Line.SMT_14039 phases=1 bus1=258001.2 bus2= 258011.2 linecode=1_1 length=0.27183 units=km
New Line.SMT_14083 phases=3 bus1=19701.1.2.3 bus2= 19711.1.2.3 linecode=10_3 length=0.09451 units=km
New Line.SMT_14089 phases=3 bus1=73331.1.2.3 bus2= 38261.1.2.3 linecode=10_3 length=0.09546 units=km
New Line.SMT_14090 phases=2 bus1=66081.3.1 bus2= 66091.3.1 linecode=18_2 length=0.11183 units=km
New Line.SMT_14097 phases=3 bus1=5081.1.2.3 bus2= 5091.1.2.3 linecode=10_3 length=0.10245 units=km
New Line.SMT_14102 phases=1 bus1=40991.3 bus2= 41001.3 linecode=1_1 length=0.16329 units=km
New Line.SMT_14103 phases=1 bus1=2CF312.2 bus2= 40831.2 linecode=1_1 length=0.2473 units=km
New Line.SMT_14111 phases=3 bus1=19711.1.2.3 bus2= 19721.1.2.3 linecode=10_3 length=0.10258 units=km
New Line.SMT_14133 phases=1 bus1=69781.1 bus2= 379091.1 linecode=1_1 length=0.00985 units=km
New Line.SMT_14138 phases=1 bus1=34671.3 bus2= 34681.3 linecode=1_1 length=0.10184 units=km
New Line.SMT_14139 phases=1 bus1=34681.3 bus2= 34691.3 linecode=1_1 length=0.08949 units=km
New Line.SMT_14148 phases=3 bus1=68761.1.2.3 bus2= 68771.1.2.3 linecode=10_3 length=0.10826 units=km
New Line.SMT_14153 phases=1 bus1=34691.3 bus2= 34701.3 linecode=1_1 length=0.08349 units=km
New Line.SMT_14154 phases=3 bus1=65891.1.2.3 bus2= 65921.1.2.3 linecode=10_3 length=0.0959 units=km
New Line.SMT_14167 phases=2 bus1=56081.3.1 bus2= 56091.3.1 linecode=18_2 length=0.11207 units=km
New Line.SMT_14169 phases=3 bus1=51851.1.2.3 bus2= 51861.1.2.3 linecode=10_3 length=0.10925 units=km
New Line.SMT_14170 phases=3 bus1=51861.1.2.3 bus2= 51871.1.2.3 linecode=10_3 length=0.08469 units=km
New Line.SMT_14195 phases=3 bus1=667561.1.2.3 bus2= 51881.1.2.3 linecode=10_3 length=0.12277 units=km
New Line.SMT_14199 phases=3 bus1=65001.1.2.3 bus2= 65241.1.2.3 linecode=10_3 length=0.09418 units=km
New Line.SMT_14200 phases=3 bus1=65241.1.2.3 bus2= 275411.1.2.3 linecode=10_3 length=0.003 units=km
New Line.SMT_14214 phases=2 bus1=2CF752.2.3 bus2= 65011.2.3 linecode=18_2 length=0.1029 units=km
New Line.SMT_14215 phases=1 bus1=337621.3 bus2= 337631.3 linecode=1_1 length=0.09101 units=km
New Line.SMT_14216 phases=3 bus1=238061.1.2.3 bus2= 238091.1.2.3 linecode=13_3 length=0.00224 units=km
New Line.SMT_14228 phases=3 bus1=67641.1.2.3 bus2= 67651.1.2.3 linecode=10_3 length=0.11201 units=km
New Line.SMT_14229 phases=3 bus1=67651.1.2.3 bus2= 67701.1.2.3 linecode=10_3 length=0.08877 units=km
New Line.SMT_14231 phases=1 bus1=65201.3 bus2= 65211.3 linecode=1_1 length=0.11611 units=km
New Line.SMT_14232 phases=1 bus1=57911.2 bus2= 57921.2 linecode=1_1 length=0.13686 units=km
New Line.SMT_14240 phases=2 bus1=56101.3.1 bus2= 56111.3.1 linecode=18_2 length=0.10096 units=km
New Line.SMT_14245 phases=1 bus1=41001.3 bus2= 41011.3 linecode=1_1 length=0.19459 units=km
New Line.SMT_14246 phases=1 bus1=40831.2 bus2= 40841.2 linecode=1_1 length=0.09048 units=km
New Line.SMT_14270 phases=1 bus1=65211.3 bus2= 65221.3 linecode=1_1 length=0.14077 units=km
New Line.SMT_14275 phases=3 bus1=51911.1.2.3 bus2= 20701.1.2.3 linecode=10_3 length=0.00201 units=km
New Line.SMT_14282 phases=3 bus1=66001.1.2.3 bus2= 73291.1.2.3 linecode=10_3 length=0.12516 units=km
New Line.SMT_14311 phases=3 bus1=961.1.2.3 bus2= 971.1.2.3 linecode=10_3 length=0.10617 units=km
New Line.SMT_14329 phases=1 bus1=57931.2 bus2= 57941.2 linecode=1_1 length=0.12621 units=km
New Line.SMT_14340 phases=1 bus1=68781.1 bus2= 68791.1 linecode=1_1 length=0.08896 units=km
New Line.SMT_14361 phases=3 bus1=68921.1.2.3 bus2= 68931.1.2.3 linecode=10_3 length=0.14004 units=km
New Line.SMT_14366 phases=2 bus1=56111.3.1 bus2= 56121.3.1 linecode=18_2 length=0.09957 units=km
New Line.SMT_14384 phases=1 bus1=68791.1 bus2= 68801.1 linecode=1_1 length=0.34904 units=km
New Line.SMT_14389 phases=3 bus1=2CF306.1.2.3 bus2= 26611.1.2.3 linecode=10_3 length=0.0218 units=km
New Line.SMT_14390 phases=3 bus1=651531.1.2.3 bus2= 19791.1.2.3 linecode=10_3 length=0.04294 units=km
New Line.SMT_14394 phases=1 bus1=258011.2 bus2= 258021.2 linecode=1_1 length=0.07072 units=km
New Line.SMT_14398 phases=3 bus1=68931.1.2.3 bus2= 68941.1.2.3 linecode=10_3 length=0.13025 units=km
New Line.SMT_14421 phases=3 bus1=55161.1.2.3 bus2= 55171.1.2.3 linecode=10_3 length=0.07593 units=km
New Line.SMT_14425 phases=3 bus1=39921.1.2.3 bus2= 39941.1.2.3 linecode=10_3 length=0.07788 units=km
New Line.SMT_14436 phases=3 bus1=19791.1.2.3 bus2= 19801.1.2.3 linecode=10_3 length=0.08013 units=km
New Line.SMT_14464 phases=3 bus1=624701.1.2.3 bus2= 624711.1.2.3 linecode=10_3 length=0.10286 units=km
New Line.SMT_14466 phases=3 bus1=68711.1.2.3 bus2= 68721.1.2.3 linecode=10_3 length=0.11307 units=km
New Line.SMT_14471 phases=2 bus1=65111.2.3 bus2= 65121.2.3 linecode=18_2 length=0.10136 units=km
New Line.SMT_14472 phases=3 bus1=65871.1.2.3 bus2= 65891.1.2.3 linecode=10_3 length=0.1212 units=km
New Line.SMT_14483 phases=1 bus1=55951.2 bus2= 55961.2 linecode=1_1 length=0.09829 units=km
New Line.SMT_14495 phases=2 bus1=65001.2.3 bus2= 315041.2.3 linecode=18_2 length=0.00405 units=km
New Line.SMT_14497 phases=1 bus1=41041.3 bus2= 41051.3 linecode=1_1 length=0.1163 units=km
New Line.SMT_14498 phases=1 bus1=34591.3 bus2= 34601.3 linecode=1_1 length=0.09014 units=km
New Line.SMT_14501 phases=1 bus1=2CF740.3 bus2= 65881.3 linecode=1_1 length=0.00943 units=km
New Line.SMT_14507 phases=2 bus1=66071.3.1 bus2= 66081.3.1 linecode=18_2 length=0.06989 units=km
New Line.SMT_14510 phases=3 bus1=67611.1.2.3 bus2= 67621.1.2.3 linecode=10_3 length=0.09899 units=km
New Line.SMT_14511 phases=3 bus1=67621.1.2.3 bus2= 67631.1.2.3 linecode=10_3 length=0.11684 units=km
New Line.SMT_14527 phases=3 bus1=68771.1.2.3 bus2= 68781.1.2.3 linecode=10_3 length=0.12175 units=km
New Line.SMT_14528 phases=2 bus1=56091.3.1 bus2= 56101.3.1 linecode=18_2 length=0.09818 units=km
New Line.SMT_14531 phases=1 bus1=372731.3 bus2= 372741.3 linecode=1_1 length=0.07242 units=km
New Line.SMT_14532 phases=1 bus1=34661.3 bus2= 34671.3 linecode=1_1 length=0.11922 units=km
New Line.SMT_14540 phases=3 bus1=68951.1.2.3 bus2= 69631.1.2.3 linecode=10_3 length=0.12307 units=km
New Line.SMT_14547 phases=1 bus1=55921.2 bus2= 55931.2 linecode=1_1 length=0.0857 units=km
New Line.SMT_14556 phases=1 bus1=372741.3 bus2= 372751.3 linecode=1_1 length=0.11416 units=km
New Line.SMT_14560 phases=3 bus1=68691.1.2.3 bus2= 68701.1.2.3 linecode=10_3 length=0.0959 units=km
New Line.SMT_14561 phases=1 bus1=497971.3 bus2= 33961.3 linecode=1_1 length=0.06379 units=km
New Line.SMT_14568 phases=2 bus1=66931.3.1 bus2= 66941.3.1 linecode=18_2 length=0.1079 units=km
New Line.SMT_14579 phases=3 bus1=69641.1.2.3 bus2= 69651.1.2.3 linecode=10_3 length=0.0658 units=km
New Line.SMT_14593 phases=3 bus1=69661.1.2.3 bus2= 69691.1.2.3 linecode=10_3 length=0.08773 units=km
New Line.SMT_14623 phases=2 bus1=55991.3.1 bus2= 56021.3.1 linecode=18_2 length=0.11131 units=km
New Line.SMT_14624 phases=1 bus1=33931.3 bus2= 33941.3 linecode=1_1 length=0.13477 units=km
New Line.SMT_14625 phases=1 bus1=33941.3 bus2= 33951.3 linecode=1_1 length=0.12117 units=km
New Line.SMT_14628 phases=3 bus1=65921.1.2.3 bus2= 65931.1.2.3 linecode=10_3 length=0.11245 units=km
New Line.SMT_14629 phases=1 bus1=65131.3 bus2= 65171.3 linecode=1_1 length=0.14195 units=km
New Line.SMT_14645 phases=1 bus1=33961.3 bus2= 33981.3 linecode=1_1 length=0.15182 units=km
New Line.SMT_14646 phases=2 bus1=66091.3.1 bus2= 66931.3.1 linecode=18_2 length=0.09521 units=km
New Line.SMT_14650 phases=3 bus1=51881.1.2.3 bus2= 51891.1.2.3 linecode=10_3 length=0.12987 units=km
New Line.SMT_14653 phases=3 bus1=65931.1.2.3 bus2= 65941.1.2.3 linecode=10_3 length=0.09841 units=km
New Line.SMT_14666 phases=1 bus1=65171.3 bus2= 65181.3 linecode=1_1 length=0.08932 units=km
New Line.SMT_14667 phases=3 bus1=65941.1.2.3 bus2= 65951.1.2.3 linecode=10_3 length=0.13744 units=km
New Line.SMT_14679 phases=1 bus1=33981.3 bus2= 53221.3 linecode=1_1 length=0.11513 units=km
New Line.SMT_14681 phases=1 bus1=65181.3 bus2= 65191.3 linecode=1_1 length=0.08393 units=km
New Line.SMT_14686 phases=3 bus1=38321.1.2.3 bus2= 38331.1.2.3 linecode=10_3 length=0.07684 units=km
New Line.SMT_14687 phases=2 bus1=66941.3.1 bus2= 66951.3.1 linecode=18_2 length=0.10602 units=km
New Line.SMT_14704 phases=3 bus1=69701.1.2.3 bus2= 69721.1.2.3 linecode=10_3 length=0.05924 units=km
New Line.SMT_14705 phases=1 bus1=69721.1 bus2= 69731.1 linecode=1_1 length=0.20946 units=km
New Line.SMT_14709 phases=3 bus1=65951.1.2.3 bus2= 65961.1.2.3 linecode=10_3 length=0.07355 units=km
New Line.SMT_14710 phases=1 bus1=65191.3 bus2= 65201.3 linecode=1_1 length=0.12216 units=km
New Line.SMT_14713 phases=1 bus1=57951.2 bus2= 57961.2 linecode=1_1 length=0.12516 units=km
New Line.SMT_14718 phases=3 bus1=69721.1.2.3 bus2= 69861.1.2.3 linecode=10_3 length=0.05818 units=km
New Line.SMT_14739 phases=3 bus1=73301.1.2.3 bus2= 73311.1.2.3 linecode=10_3 length=0.05664 units=km
New Line.SMT_14743 phases=2 bus1=66961.3.1 bus2= 66971.3.1 linecode=18_2 length=0.09231 units=km
New Line.SMT_14750 phases=3 bus1=68781.1.2.3 bus2= 68921.1.2.3 linecode=10_3 length=0.09823 units=km
New Line.SMT_14751 phases=1 bus1=34601.3 bus2= 34611.3 linecode=1_1 length=0.09139 units=km
New Line.SMT_14773 phases=1 bus1=57941.2 bus2= 57951.2 linecode=1_1 length=0.12108 units=km
New Line.SMT_14789 phases=1 bus1=34611.3 bus2= 372721.3 linecode=1_1 length=0.17562 units=km
New Line.SMT_14790 phases=1 bus1=34611.3 bus2= 34621.3 linecode=1_1 length=0.06742 units=km
New Line.SMT_14812 phases=2 bus1=56051.3.1 bus2= 56061.3.1 linecode=18_2 length=0.09898 units=km
New Line.SMT_14814 phases=1 bus1=372721.3 bus2= 372731.3 linecode=1_1 length=0.14223 units=km
New Line.SMT_14827 phases=3 bus1=73291.1.2.3 bus2= 73301.1.2.3 linecode=10_3 length=0.14153 units=km
New Line.SMT_14843 phases=1 bus1=68801.1 bus2= 68811.1 linecode=1_1 length=0.08797 units=km
New Line.SMT_14856 phases=2 bus1=66051.3.1 bus2= 66061.3.1 linecode=18_2 length=0.08301 units=km
New Line.SMT_14858 phases=3 bus1=38361.1.2.3 bus2= 348651.1.2.3 linecode=10_3 length=0.08208 units=km
New Line.SMT_14861 phases=3 bus1=315031.1.2.3 bus2= 51911.1.2.3 linecode=10_3 length=0.12265 units=km
New Line.SMT_14868 phases=3 bus1=73311.1.2.3 bus2= 73321.1.2.3 linecode=10_3 length=0.09762 units=km
New Line.SMT_14869 phases=2 bus1=66061.3.1 bus2= 66071.3.1 linecode=18_2 length=0.11621 units=km
New Line.SMT_14884 phases=3 bus1=69631.1.2.3 bus2= 69641.1.2.3 linecode=10_3 length=0.10662 units=km
New Line.SMT_14889 phases=3 bus1=70821.1.2.3 bus2= 70831.1.2.3 linecode=10_3 length=0.07708 units=km
New Line.SMT_14897 phases=3 bus1=73321.1.2.3 bus2= 73331.1.2.3 linecode=10_3 length=0.10962 units=km
New Line.SMT_14900 phases=3 bus1=348651.1.2.3 bus2= 39251.1.2.3 linecode=10_3 length=0.07616 units=km
New Line.SMT_14902 phases=3 bus1=70801.1.2.3 bus2= 70811.1.2.3 linecode=10_3 length=0.08538 units=km
New Line.SMT_14918 phases=3 bus1=661501.1.2.3 bus2= 39281.1.2.3 linecode=10_3 length=0.04901 units=km
New Line.SMT_14926 phases=1 bus1=41051.3 bus2= 33931.3 linecode=1_1 length=0.09973 units=km
New Line.SMT_14931 phases=2 bus1=65121.2.3 bus2= 65131.2.3 linecode=18_2 length=0.07207 units=km
New Line.SMT_14933 phases=3 bus1=69691.1.2.3 bus2= 69701.1.2.3 linecode=10_3 length=0.08417 units=km
New Line.SMT_14941 phases=3 bus1=28CF308.1.2.3 bus2= 38371.1.2.3 linecode=10_3 length=0.13922 units=km
New Line.SMT_14942 phases=3 bus1=39251.1.2.3 bus2= 39261.1.2.3 linecode=10_3 length=0.07125 units=km
New Line.SMT_14956 phases=3 bus1=38371.1.2.3 bus2= 39141.1.2.3 linecode=10_3 length=0.05714 units=km
New Line.SMT_15033 phases=2 bus1=58011.3.1 bus2= 58021.3.1 linecode=18_2 length=0.0831 units=km
New Line.SMT_15048 phases=1 bus1=55931.2 bus2= 55941.2 linecode=1_1 length=0.09296 units=km
New Line.SMT_15064 phases=3 bus1=65961.1.2.3 bus2= 65971.1.2.3 linecode=10_3 length=0.10112 units=km
New Line.SMT_15100 phases=3 bus1=70831.1.2.3 bus2= 70841.1.2.3 linecode=10_3 length=0.07379 units=km
New Line.SMT_15116 phases=3 bus1=70851.1.2.3 bus2= 70861.1.2.3 linecode=10_3 length=0.07877 units=km
New Line.SMT_15117 phases=1 bus1=53241.3 bus2= 53251.3 linecode=1_1 length=0.13352 units=km
New Line.SMT_15133 phases=3 bus1=931.1.2.3 bus2= 951.1.2.3 linecode=10_3 length=0.05515 units=km
New Line.SMT_15156 phases=1 bus1=57921.2 bus2= 57931.2 linecode=1_1 length=0.11977 units=km
New Line.SMT_15158 phases=1 bus1=53251.3 bus2= 34591.3 linecode=1_1 length=0.12049 units=km
New Line.SMT_15169 phases=3 bus1=68701.1.2.3 bus2= 68711.1.2.3 linecode=10_3 length=0.10745 units=km
New Line.SMT_15170 phases=2 bus1=56031.3.1 bus2= 56041.3.1 linecode=18_2 length=0.10017 units=km
New Line.SMT_15183 phases=1 bus1=55941.2 bus2= 55951.2 linecode=1_1 length=0.10104 units=km
New Line.SMT_15185 phases=2 bus1=366611.2.3 bus2= 65111.2.3 linecode=18_2 length=0.07071 units=km
New Line.SMT_15186 phases=1 bus1=65871.3 bus2= 326651.3 linecode=1_1 length=0.00316 units=km
New Line.SMT_15196 phases=3 bus1=19701.1.2.3 bus2= 238051.1.2.3 linecode=13_3 length=0.06369 units=km
New Line.SMT_15197 phases=3 bus1=55111.1.2.3 bus2= 55121.1.2.3 linecode=10_3 length=0.09479 units=km
New Line.SMT_15210 phases=2 bus1=58021.3.1 bus2= 58031.3.1 linecode=18_2 length=0.0831 units=km
New Line.SMT_15223 phases=3 bus1=39281.1.2.3 bus2= 931.1.2.3 linecode=10_3 length=0.05135 units=km
New Line.SMT_15238 phases=3 bus1=39281.1.2.3 bus2= 39291.1.2.3 linecode=13_3 length=0.08542 units=km
New Line.SMT_15242 phases=3 bus1=51891.1.2.3 bus2= 51901.1.2.3 linecode=10_3 length=0.10585 units=km
New Line.SMT_15249 phases=3 bus1=68741.1.2.3 bus2= 68751.1.2.3 linecode=10_3 length=0.08387 units=km
New Line.SMT_15250 phases=1 bus1=34621.3 bus2= 34661.3 linecode=1_1 length=0.1009 units=km
New Line.SMT_15256 phases=3 bus1=51901.1.2.3 bus2= 315031.1.2.3 linecode=10_3 length=0.08011 units=km
New Line.SMT_15265 phases=2 bus1=56061.3.1 bus2= 56071.3.1 linecode=18_2 length=0.10153 units=km
New Line.SMT_15266 phases=3 bus1=69861.1.2.3 bus2= 51841.1.2.3 linecode=10_3 length=0.03454 units=km
New Line.SMT_15267 phases=1 bus1=69731.1 bus2= 69741.1 linecode=1_1 length=0.2638 units=km
New Line.SMT_15278 phases=1 bus1=57961.2 bus2= 57971.2 linecode=1_1 length=0.12962 units=km
New Line.SMT_15283 phases=1 bus1=69741.1 bus2= 69781.1 linecode=1_1 length=0.15789 units=km
New Line.SMT_15290 phases=3 bus1=68751.1.2.3 bus2= 68761.1.2.3 linecode=10_3 length=0.11305 units=km
New Line.SMT_15291 phases=2 bus1=56071.3.1 bus2= 56081.3.1 linecode=18_2 length=0.09964 units=km
New Line.SMT_15349 phases=2 bus1=56021.3.1 bus2= 56031.3.1 linecode=18_2 length=0.11122 units=km
New Line.SMT_15351 phases=1 bus1=53231.3 bus2= 53241.3 linecode=1_1 length=0.11964 units=km
New Line.SMT_15369 phases=3 bus1=2FR774.1.2.3 bus2= 55111.1.2.3 linecode=10_3 length=0.07788 units=km
New Line.SMT_15555 phases=3 bus1=70861.1.2.3 bus2= 70871.1.2.3 linecode=10_3 length=0.08336 units=km
New Line.SMT_15636 phases=3 bus1=55041.1.2.3 bus2= 55081.1.2.3 linecode=10_3 length=0.10155 units=km
New Line.SMT_15647 phases=3 bus1=55081.1.2.3 bus2= 55091.1.2.3 linecode=10_3 length=0.0989 units=km
New Line.SMT_15661 phases=3 bus1=39291.1.2.3 bus2= 39301.1.2.3 linecode=13_3 length=0.06712 units=km
New Line.SMT_15674 phases=3 bus1=951.1.2.3 bus2= 961.1.2.3 linecode=10_3 length=0.09413 units=km
New Line.SMT_15675 phases=1 bus1=58041.3 bus2= 58051.3 linecode=1_1 length=0.28762 units=km
New Line.SMT_15778 phases=1 bus1=627801.2 bus2= 627811.2 linecode=1_1 length=0.15352 units=km
New Line.SMT_15780 phases=1 bus1=66971.1 bus2= 541371.1 linecode=1_1 length=0.15211 units=km
New Line.SMT_15781 phases=1 bus1=541371.1 bus2= 541381.1 linecode=1_1 length=0.09171 units=km
New Line.SMT_15840 phases=1 bus1=627781.2 bus2= 627791.2 linecode=1_1 length=0.1294 units=km
New Line.SMT_15948 phases=3 bus1=2CS322.1.2.3 bus2= 19681.1.2.3 linecode=10_3 length=0.09641 units=km
New Line.SMT_16064 phases=3 bus1=55101.1.2.3 bus2= 369091.1.2.3 linecode=10_3 length=0.00412 units=km
New Line.SMT_16065 phases=3 bus1=19681.1.2.3 bus2= 19691.1.2.3 linecode=10_3 length=0.119 units=km
New Line.SMT_16112 phases=1 bus1=33991.3 bus2= 34001.3 linecode=1_1 length=0.06627 units=km
New Line.SMT_16113 phases=1 bus1=55961.2 bus2= 627781.2 linecode=1_1 length=0.12804 units=km
New Line.SMT_16217 phases=1 bus1=627811.2 bus2= 627821.2 linecode=1_1 length=0.13152 units=km
New Line.SMT_16225 phases=1 bus1=627791.2 bus2= 627801.2 linecode=1_1 length=0.157 units=km
New Line.SMT_16551 phases=1 bus1=34001.3 bus2= 376581.3 linecode=1_1 length=0.09144 units=km
New Line.SMT_16938 phases=1 bus1=70801.2 bus2= 478621.2 linecode=1_1 length=0.18736 units=km
New Line.SMT_16952 phases=1 bus1=478621.2 bus2= 478631.2 linecode=1_1 length=0.20261 units=km
New Line.SMT_16953 phases=1 bus1=478631.2 bus2= 478641.2 linecode=1_1 length=0.1206 units=km
New Line.SMT_17065 phases=1 bus1=478641.2 bus2= 478651.2 linecode=1_1 length=0.1005 units=km
New Line.SMT_17208 phases=1 bus1=478711.2 bus2= 478721.2 linecode=1_1 length=0.20412 units=km
New Line.SMT_17305 phases=1 bus1=34711.3 bus2= 34721.3 linecode=1_1 length=0.07811 units=km
New Line.SMT_17377 phases=1 bus1=622811.2 bus2= 622821.2 linecode=1_1 length=0.26369 units=km
New Line.SMT_17425 phases=3 bus1=55081.1.2.3 bus2= 459861.1.2.3 linecode=10_3 length=0.00383 units=km
New Line.SMT_17562 phases=1 bus1=620971.1 bus2= 620991.1 linecode=1_1 length=0.08736 units=km
New Line.SMT_17564 phases=1 bus1=66081.1 bus2= 620971.1 linecode=1_1 length=0.09962 units=km
New Line.SMT_17659 phases=3 bus1=70871.1.2.3 bus2= 67531.1.2.3 linecode=10_3 length=0.08868 units=km
New Line.SMT_18179 phases=3 bus1=39281.1.2.3 bus2= 649771.1.2.3 linecode=13_3 length=0.01523 units=km
New Line.SMT_18180 phases=3 bus1=891.1.2.3 bus2= 901.1.2.3 linecode=13_3 length=0.11206 units=km
New Line.SMT_18181 phases=3 bus1=901.1.2.3 bus2= 911.1.2.3 linecode=13_3 length=0.0822 units=km
New Line.SMT_18436 phases=3 bus1=386201.1.2.3 bus2= 665561.1.2.3 linecode=10_3 length=0.00139 units=km
New Line.SMT_1846 phases=1 bus1=497681.3 bus2= 497691.3 linecode=1_1 length=0.11318 units=km
New Line.SMT_18904 phases=3 bus1=582641.1.2.3 bus2= 571851.1.2.3 linecode=13_3 length=0.01024 units=km
New Line.SMT_1900 phases=1 bus1=41001.3 bus2= 497681.3 linecode=1_1 length=0.03289 units=km
New Line.SMT_19917 phases=3 bus1=70841.1.2.3 bus2= 307371.1.2.3 linecode=10_3 length=0.08914 units=km
New Line.SMT_20013 phases=3 bus1=38261.1.2.3 bus2= 38271.1.2.3 linecode=10_3 length=0.08544 units=km
New Line.SMT_20051 phases=3 bus1=5101.1.2.3 bus2= 5111.1.2.3 linecode=10_3 length=0.09808 units=km
New Line.SMT_20061 phases=3 bus1=38351.1.2.3 bus2= 38361.1.2.3 linecode=10_3 length=0.08228 units=km
New Line.SMT_20255 phases=3 bus1=5061.1.2.3 bus2= 5081.1.2.3 linecode=10_3 length=0.09014 units=km
New Line.SMT_2049 phases=1 bus1=33951.3 bus2= 497971.3 linecode=1_1 length=0.05566 units=km
New Line.SMT_20707 phases=3 bus1=68941.1.2.3 bus2= 68951.1.2.3 linecode=10_3 length=0.1186 units=km
New Line.SMT_20708 phases=3 bus1=69651.1.2.3 bus2= 69661.1.2.3 linecode=10_3 length=0.12331 units=km
New Line.SMT_20709 phases=3 bus1=51841.1.2.3 bus2= 51851.1.2.3 linecode=10_3 length=0.08144 units=km
New Line.SMT_20710 phases=1 bus1=478651.2 bus2= 478661.2 linecode=1_1 length=0.11216 units=km
New Line.SMT_20711 phases=3 bus1=67061.1.2.3 bus2= 70791.1.2.3 linecode=10_3 length=0.09476 units=km
New Line.SMT_20712 phases=3 bus1=70821.1.2.3 bus2= 70851.1.2.3 linecode=10_3 length=0.07976 units=km
New Line.SMT_20713 phases=3 bus1=307371.1.2.3 bus2= 307381.1.2.3 linecode=10_3 length=0.05201 units=km
New Line.SMT_20714 phases=3 bus1=2CF1119.1.2.3 bus2= 493111.1.2.3 linecode=10_3 length=0.10373 units=km
New Line.SMT_20715 phases=1 bus1=53221.3 bus2= 53231.3 linecode=1_1 length=0.13315 units=km
New Line.SMT_20716 phases=1 bus1=33981.3 bus2= 33991.3 linecode=1_1 length=0.06017 units=km
New Line.SMT_20717 phases=3 bus1=65971.1.2.3 bus2= 66001.1.2.3 linecode=10_3 length=0.09899 units=km
New Line.SMT_20718 phases=1 bus1=41011.3 bus2= 41021.3 linecode=1_1 length=0.16651 units=km
New Line.SMT_2120 phases=1 bus1=55911.2 bus2= 646281.2 linecode=1_1 length=0.07151 units=km
New Line.SMT_21537 phases=3 bus1=39991.1.2.3 bus2= 40001.1.2.3 linecode=13_3 length=0.07393 units=km
New Line.SMT_21553 phases=3 bus1=624771.1.2.3 bus2= 624781.1.2.3 linecode=10_3 length=0.1114 units=km
New Line.SMT_21554 phases=3 bus1=38271.1.2.3 bus2= 751461.1.2.3 linecode=10_3 length=0.05304 units=km
New Line.SMT_21555 phases=2 bus1=58031.3.1 bus2= 58041.3.1 linecode=18_2 length=0.08668 units=km
New Line.SMT_21556 phases=1 bus1=58041.1 bus2= 6291.1 linecode=1_1 length=0.08246 units=km
New Line.SMT_21558 phases=2 bus1=56041.3.1 bus2= 56051.3.1 linecode=18_2 length=0.1096 units=km
New Line.SMT_21559 phases=3 bus1=55091.1.2.3 bus2= 55101.1.2.3 linecode=10_3 length=0.10469 units=km
New Line.SMT_21560 phases=3 bus1=19691.1.2.3 bus2= 19701.1.2.3 linecode=10_3 length=0.12307 units=km
New Line.SMT_21561 phases=3 bus1=238051.1.2.3 bus2= 238061.1.2.3 linecode=13_3 length=0.07697 units=km
New Line.SMT_21562 phases=3 bus1=651541.1.2.3 bus2= 651551.1.2.3 linecode=10_3 length=0.13225 units=km
New Line.SMT_21563 phases=3 bus1=57911.1.2.3 bus2= 68691.1.2.3 linecode=10_3 length=0.10576 units=km
New Line.SMT_22163 phases=3 bus1=571861.1.2.3 bus2= 386211.1.2.3 linecode=13_3 length=0.06524 units=km
New Line.SMT_22172 phases=3 bus1=582641.1.2.3 bus2= 571861.1.2.3 linecode=13_3 length=0.01887 units=km
New Line.SMT_2280 phases=1 bus1=40031.1 bus2= 40041.1 linecode=1_1 length=0.09398 units=km
New Line.SMT_2301 phases=1 bus1=40041.1 bus2= 40051.1 linecode=1_1 length=0.06263 units=km
New Line.SMT_23158 phases=1 bus1=39971.3 bus2= 40971.3 linecode=1_1 length=0.12612 units=km
New Line.SMT_23444 phases=3 bus1=56011.1.2.3 bus2= 340051.1.2.3 linecode=10_3 length=0.10429 units=km
New Line.SMT_2363 phases=1 bus1=40051.1 bus2= 40061.1 linecode=1_1 length=0.17374 units=km
New Line.SMT_23990 phases=1 bus1=68811.1 bus2= 68891.1 linecode=1_1 length=0.0559 units=km
New Line.SMT_24177 phases=3 bus1=55991.1.2.3 bus2= 56001.1.2.3 linecode=10_3 length=0.08676 units=km
New Line.SMT_24245 phases=3 bus1=56001.1.2.3 bus2= 56011.1.2.3 linecode=10_3 length=0.10559 units=km
New Line.SMT_24732 phases=3 bus1=2RL320.1.2.3 bus2= 582641.1.2.3 linecode=10_3 length=0.00225 units=km
New Line.SMT_25237 phases=3 bus1=39971.1.2.3 bus2= 660501.1.2.3 linecode=13_3 length=0.09751 units=km
New Line.SMT_26259 phases=3 bus1=55121.1.2.3 bus2= 55131.1.2.3 linecode=10_3 length=0.10678 units=km
New Line.SMT_26260 phases=3 bus1=582641.1.2.3 bus2= 55041.1.2.3 linecode=10_3 length=0.06673 units=km
New Line.SMT_26261 phases=3 bus1=54471.1.2.3 bus2= 58261.1.2.3 linecode=10_3 length=0.11229 units=km
New Line.SMT_26262 phases=3 bus1=68721.1.2.3 bus2= 68741.1.2.3 linecode=10_3 length=0.10542 units=km
New Line.SMT_26263 phases=1 bus1=478721.2 bus2= 478731.2 linecode=1_1 length=0.12996 units=km
New Line.SMT_26264 phases=3 bus1=2FR307.1.2.3 bus2= 67061.1.2.3 linecode=10_3 length=0.09883 units=km
New Line.SMT_26265 phases=3 bus1=70791.1.2.3 bus2= 70801.1.2.3 linecode=10_3 length=0.12813 units=km
New Line.SMT_26266 phases=3 bus1=70811.1.2.3 bus2= 70821.1.2.3 linecode=10_3 length=0.08417 units=km
New Line.SMT_26267 phases=3 bus1=67601.1.2.3 bus2= 67611.1.2.3 linecode=10_3 length=0.11823 units=km
New Line.SMT_26268 phases=3 bus1=5091.1.2.3 bus2= 5101.1.2.3 linecode=10_3 length=0.09795 units=km
New Line.SMT_26298 phases=3 bus1=5131.1.2.3 bus2= 5141.1.2.3 linecode=10_3 length=0.11703 units=km
New Line.SMT_26299 phases=3 bus1=65261.1.2.3 bus2= 65851.1.2.3 linecode=10_3 length=0.07237 units=km
New Line.SMT_26300 phases=1 bus1=65861.2 bus2= 627431.2 linecode=1_1 length=0.05826 units=km
New Line.SMT_26301 phases=2 bus1=2CF310.3.1 bus2= 20711.3.1 linecode=18_2 length=0.00264 units=km
New Line.SMT_26302 phases=1 bus1=34701.3 bus2= 34711.3 linecode=1_1 length=0.15456 units=km
New Line.SMT_26303 phases=3 bus1=38361.1.2.3 bus2= 20721.1.2.3 linecode=10_3 length=0.00302 units=km
New Line.SMT_26304 phases=3 bus1=38341.1.2.3 bus2= 38351.1.2.3 linecode=10_3 length=0.07716 units=km
New Line.SMT_26305 phases=3 bus1=38331.1.2.3 bus2= 38341.1.2.3 linecode=10_3 length=0.07368 units=km
New Line.SMT_26306 phases=2 bus1=66951.3.1 bus2= 66961.3.1 linecode=18_2 length=0.25203 units=km
New Line.SMT_26307 phases=2 bus1=66971.3.1 bus2= 58001.3.1 linecode=18_2 length=0.12433 units=km
New Line.SMT_26308 phases=1 bus1=40841.2 bus2= 40851.2 linecode=1_1 length=0.06929 units=km
New Line.SMT_26309 phases=3 bus1=39301.1.2.3 bus2= 891.1.2.3 linecode=13_3 length=0.16469 units=km
New Line.SMT_26736 phases=3 bus1=571851.1.2.3 bus2= 386941.1.2.3 linecode=10_3 length=0.0908 units=km
New Line.SMT_26737 phases=3 bus1=386941.1.2.3 bus2= 386951.1.2.3 linecode=10_3 length=0.06836 units=km
New Line.SMT_26740 phases=3 bus1=386951.1.2.3 bus2= 55051.1.2.3 linecode=10_3 length=0.09986 units=km
New Line.SMT_27043 phases=1 bus1=40901.2 bus2= 40911.2 linecode=29_1 length=0.07971 units=km
New Line.SMT_27044 phases=1 bus1=40911.2 bus2= 40921.2 linecode=29_1 length=0.05665 units=km
New Line.SMT_27045 phases=1 bus1=40921.2 bus2= 40931.2 linecode=29_1 length=0.07976 units=km
New Line.SMT_27046 phases=1 bus1=40931.2 bus2= 709521.2 linecode=29_1 length=0.07125 units=km
New Line.SMT_27902 phases=1 bus1=68911.1 bus2= 732381.1 linecode=1_1 length=0.13744 units=km
New Line.SMT_27903 phases=1 bus1=68901.1 bus2= 68911.1 linecode=1_1 length=0.10096 units=km
New Line.SMT_27904 phases=1 bus1=68891.1 bus2= 68901.1 linecode=1_1 length=0.09596 units=km
New Line.SMT_28274 phases=1 bus1=68851.1 bus2= 68861.1 linecode=1_1 length=0.09781 units=km
New Line.SMT_28275 phases=1 bus1=68861.1 bus2= 68871.1 linecode=1_1 length=0.12906 units=km
New Line.SMT_28276 phases=1 bus1=68871.1 bus2= 68881.1 linecode=1_1 length=0.09862 units=km
New Line.SMT_28277 phases=1 bus1=68811.1 bus2= 68851.1 linecode=1_1 length=0.08204 units=km
New Line.SMT_2840 phases=1 bus1=39901.3 bus2= 585111.3 linecode=1_1 length=0.11521 units=km
New Line.SMT_28450 phases=3 bus1=65851.1.2.3 bus2= 65861.1.2.3 linecode=10_3 length=0.08319 units=km
New Line.SMT_28451 phases=2 bus1=20711.3.1 bus2= 66051.3.1 linecode=18_2 length=0.07585 units=km
New Line.SMT_28681 phases=3 bus1=624761.1.2.3 bus2= 624771.1.2.3 linecode=10_3 length=0.07515 units=km
New Line.SMT_2956 phases=1 bus1=585111.3 bus2= 585081.3 linecode=1_1 length=0.18374 units=km
New Line.SMT_2976 phases=1 bus1=585081.3 bus2= 585101.3 linecode=1_1 length=0.12176 units=km
New Line.SMT_29931 phases=3 bus1=651531.1.2.3 bus2= 674421.1.2.3 linecode=10_3 length=0.00318 units=km
New Line.SMT_30980 phases=3 bus1=751461.1.2.3 bus2= 38321.1.2.3 linecode=10_3 length=0.05487 units=km
New Line.SMT_30981 phases=3 bus1=28CF1658.1.2.3 bus2= 751471.1.2.3 linecode=10_3 length=0.11 units=km
New Line.SMT_30982 phases=3 bus1=751471.1.2.3 bus2= 751481.1.2.3 linecode=10_3 length=0.089 units=km
New Line.SMT_30983 phases=3 bus1=751481.1.2.3 bus2= 751491.1.2.3 linecode=10_3 length=0.095 units=km
New Line.SMT_30984 phases=3 bus1=751491.1.2.3 bus2= 751501.1.2.3 linecode=10_3 length=0.081 units=km
New Line.SMT_30985 phases=3 bus1=751501.1.2.3 bus2= 751521.1.2.3 linecode=10_3 length=0.152 units=km
New Line.SMT_30986 phases=3 bus1=751521.1.2.3 bus2= 751531.1.2.3 linecode=10_3 length=0.08 units=km
New Line.SMT_30987 phases=3 bus1=751531.1.2.3 bus2= 751541.1.2.3 linecode=10_3 length=0.076 units=km
New Line.SMT_30988 phases=3 bus1=751541.1.2.3 bus2= 751551.1.2.3 linecode=10_3 length=0.103 units=km
New Line.SMT_30989 phases=3 bus1=751551.1.2.3 bus2= 751561.1.2.3 linecode=10_3 length=0.076 units=km
New Line.SMT_30990 phases=3 bus1=751561.1.2.3 bus2= 751571.1.2.3 linecode=10_3 length=0.076 units=km
New Line.SMT_30991 phases=3 bus1=751551.1.2.3 bus2= 751581.1.2.3 linecode=10_3 length=0.08 units=km
New Line.SMT_30992 phases=3 bus1=751581.1.2.3 bus2= 751591.1.2.3 linecode=10_3 length=0.09 units=km
New Line.SMT_30993 phases=3 bus1=751591.1.2.3 bus2= 751601.1.2.3 linecode=10_3 length=0.096 units=km
New Line.SMT_30994 phases=3 bus1=751601.1.2.3 bus2= 751611.1.2.3 linecode=10_3 length=0.09 units=km
New Line.SMT_30995 phases=3 bus1=751611.1.2.3 bus2= 751621.1.2.3 linecode=10_3 length=0.095 units=km
New Line.SMT_30996 phases=3 bus1=751621.1.2.3 bus2= 751631.1.2.3 linecode=10_3 length=0.059 units=km
New Line.SMT_30997 phases=3 bus1=751631.1.2.3 bus2= 751641.1.2.3 linecode=10_3 length=0.102 units=km
New Line.SMT_30998 phases=3 bus1=751641.1.2.3 bus2= 751651.1.2.3 linecode=10_3 length=0.079 units=km
New Line.SMT_30999 phases=3 bus1=751651.1.2.3 bus2= 751661.1.2.3 linecode=10_3 length=0.028 units=km
New Line.SMT_31000 phases=3 bus1=751661.1.2.3 bus2= 751671.1.2.3 linecode=10_3 length=0.044 units=km
New Line.SMT_31975 phases=1 bus1=760681.2 bus2= 67671.2 linecode=1_1 length=0.11795 units=km
New Line.SMT_31976 phases=1 bus1=67671.2 bus2= 67681.2 linecode=1_1 length=0.13424 units=km
New Line.SMT_31977 phases=1 bus1=67681.2 bus2= 67691.2 linecode=1_1 length=0.05608 units=km
New Line.SMT_31978 phases=1 bus1=760621.2 bus2= 760611.2 linecode=1_1 length=0.07422 units=km
New Line.SMT_31979 phases=1 bus1=760631.2 bus2= 760621.2 linecode=1_1 length=0.07486 units=km
New Line.SMT_31980 phases=1 bus1=760641.2 bus2= 760631.2 linecode=1_1 length=0.087 units=km
New Line.SMT_31981 phases=1 bus1=760651.2 bus2= 760641.2 linecode=1_1 length=0.08363 units=km
New Line.SMT_31982 phases=1 bus1=67681.2 bus2= 760651.2 linecode=1_1 length=0.09525 units=km
New Line.SMT_31983 phases=1 bus1=67661.2 bus2= 760681.2 linecode=1_1 length=0.02023 units=km
New Line.SMT_33702 phases=3 bus1=68741.1.2.3 bus2= 772231.1.2.3 linecode=10_3 length=0.13775 units=km
New Line.SMT_33703 phases=3 bus1=772231.1.2.3 bus2= 772241.1.2.3 linecode=10_3 length=0.08732 units=km
New Line.SMT_33762 phases=1 bus1=376581.3 bus2= 607861.3 linecode=1_1 length=0.09862 units=km
New Line.SMT_33974 phases=1 bus1=774611.2 bus2= 622811.2 linecode=1_1 length=0.25649 units=km
New Line.SMT_33975 phases=1 bus1=57891.2 bus2= 774611.2 linecode=1_1 length=0.0752 units=km
New Line.SMT_350 phases=3 bus1=624711.1.2.3 bus2= 624761.1.2.3 linecode=10_3 length=0.09762 units=km
New Line.SMT_3551 phases=1 bus1=40081.1 bus2= 40091.1 linecode=1_1 length=0.19044 units=km
New Line.SMT_35641 phases=1 bus1=66011.1 bus2= 786921.1 linecode=1_1 length=0.07886 units=km
New Line.SMT_35642 phases=1 bus1=786921.1 bus2= 786931.1 linecode=1_1 length=0.10102 units=km
New Line.SMT_35643 phases=1 bus1=786931.1 bus2= 786941.1 linecode=1_1 length=0.10205 units=km
New Line.SMT_37352 phases=3 bus1=1_QUEB_1.1.2.3 bus2= 55031.1.2.3 linecode=13_3 length=0.02287 units=km
New Line.SMT_37353 phases=3 bus1=797081.1.2.3 bus2= 386201.1.2.3 linecode=13_3 length=0.02776 units=km
New Line.SMT_37354 phases=3 bus1=55031.1.2.3 bus2= 774191.1.2.3 linecode=13_3 length=0.02445 units=km
New Line.SMT_37355 phases=3 bus1=2CF1895.1.2.3 bus2= 797081.1.2.3 linecode=13_3 length=0.02575 units=km
New Line.SMT_37464 phases=3 bus1=386211.1.2.3 bus2= 797811.1.2.3 linecode=13_3 length=0.083 units=km
New Line.SMT_37465 phases=3 bus1=797811.1.2.3 bus2= 797821.1.2.3 linecode=13_3 length=0.075 units=km
New Line.SMT_39624 phases=1 bus1=2CF1928.2 bus2= 67661.2 linecode=1_1 length=0.1697 units=km
New Line.SMT_3970 phases=3 bus1=55031.1.2.3 bus2= 55021.1.2.3 linecode=10_3 length=0.00361 units=km
New Line.SMT_39917 phases=1 bus1=816351.2 bus2= 478701.2 linecode=1_1 length=0.07357 units=km
New Line.SMT_39918 phases=1 bus1=816361.2 bus2= 478711.2 linecode=1_1 length=0.0725 units=km
New Line.SMT_39919 phases=1 bus1=478661.2 bus2= 816351.2 linecode=1_1 length=0.04055 units=km
New Line.SMT_39920 phases=1 bus1=478701.2 bus2= 816361.2 linecode=1_1 length=0.10965 units=km
New Line.SMT_4046 phases=3 bus1=51871.1.2.3 bus2= 667561.1.2.3 linecode=10_3 length=0.06447 units=km
New Line.SMT_5990 phases=3 bus1=65001.1.2.3 bus2= 653271.1.2.3 linecode=10_3 length=0.00235 units=km
New Line.SMT_6882 phases=1 bus1=40861.2 bus2= 40871.2 linecode=29_1 length=0.04904 units=km
New Line.SMT_7347 phases=1 bus1=40871.2 bus2= 40901.2 linecode=29_1 length=0.08154 units=km
New Line.SMT_823 phases=3 bus1=19771.1.2.3 bus2= 651531.1.2.3 linecode=10_3 length=0.04632 units=km
New Line.SMT_8508 phases=1 bus1=646281.2 bus2= 55921.2 linecode=1_1 length=0.09485 units=km
New Line.SMT_8820 phases=3 bus1=67531.1.2.3 bus2= 67541.1.2.3 linecode=10_3 length=0.09027 units=km
New Line.SMT_9212 phases=3 bus1=67631.1.2.3 bus2= 67641.1.2.3 linecode=10_3 length=0.09801 units=km
New Line.SMT_9312 phases=2 bus1=20711.3.1 bus2= 66011.3.1 linecode=18_2 length=0.07844 units=km
