examples/feeders/1_QUEB_1/008_segmentoBT.dss
New Line.SBT_20449 phases=3 bus1=BT67571.1.2.4 bus2=BT67581.1.2.4 linecode=44_3 length=0.08481 units=km
New Line.SBT_3402 phases=3 bus1=ET2_1038.1.2.4 bus2=BT67571.1.2.4 linecode=44_3 length=0.09626 units=km
New Line.SBT_3403 phases=2 bus1=BT67581.1.4 bus2=BT67591.1.4 linecode=60_2 length=0.07545 units=km
New Line.SBT_3170 phases=3 bus1=ET2_1114.1.2.4 bus2=BT19661.1.2.4 linecode=44_3 length=0.05148 units=km
New Line.SBT_5311 phases=2 bus1=BT19661.1.4 bus2=BT498011.1.4 linecode=62_2 length=0.03517 units=km
New Line.SBT_5312 phases=2 bus1=BT498011.1.4 bus2=BT498021.1.4 linecode=62_2 length=0.1352 units=km
New Line.SBT_5313 phases=2 bus1=BT498021.1.4 bus2=BT498031.1.4 linecode=62_2 length=0.08422 units=km
New Line.SBT_2585 phases=2 bus1=ET2_1114.1.4 bus2=BT56111.1.4 linecode=60_2 length=0.09957 units=km
New Line.SBT_15225 phases=3 bus1=ET2_1114.1.2.4 bus2=BT497131.1.2.4 linecode=59_3 length=0.02559 units=km
New Line.SBT_19997 phases=3 bus1=BT497131.1.2.4 bus2=BT19671.1.2.4 linecode=59_3 length=0.03985 units=km
New Line.SBT_20279 phases=2 bus1=BT68871.1.4 bus2=BT68861.1.4 linecode=60_2 length=0.12906 units=km
New Line.SBT_4156 phases=2 bus1=ET2_1149.1.4 bus2=BT391581.1.4 linecode=60_2 length=0.05743 units=km
New Line.SBT_3092 phases=2 bus1=ET2_1149.1.4 bus2=BT68871.1.4 linecode=60_2 length=0.09862 units=km
New Line.SBT_3104 phases=2 bus1=BT51841.1.4 bus2=BT51851.1.4 linecode=60_2 length=0.08144 units=km
New Line.SBT_3105 phases=2 bus1=BT69701.1.4 bus2=BT69711.1.4 linecode=60_2 length=0.06277 units=km
New Line.SBT_3106 phases=3 bus1=BT69701.1.2.4 bus2=BT69691.1.2.4 linecode=44_3 length=0.08417 units=km
New Line.SBT_2842 phases=2 bus1=ET2_1153.1.4 bus2=BT51841.1.4 linecode=60_2 length=0.03454 units=km
New Line.SBT_2843 phases=3 bus1=ET2_1153.1.2.4 bus2=BT69721.1.2.4 linecode=44_3 length=0.05818 units=km
New Line.SBT_3180 phases=3 bus1=BT51801.1.2.4 bus2=BT51811.1.2.4 linecode=44_3 length=0.09025 units=km
New Line.SBT_4074 phases=3 bus1=BT51811.1.2.4 bus2=BT51821.1.2.4 linecode=44_3 length=0.08902 units=km
New Line.SBT_4075 phases=2 bus1=BT51821.1.4 bus2=BT51831.1.4 linecode=60_2 length=0.05604 units=km
New Line.SBT_20280 phases=3 bus1=ET2_1153.1.2.4 bus2=BT69871.1.2.4 linecode=44_3 length=0.0622 units=km
New Line.SBT_20285 phases=3 bus1=BT69721.1.2.4 bus2=BT69701.1.2.4 linecode=44_3 length=0.05924 units=km
New Line.SBT_20182 phases=3 bus1=BT69891.1.2.4 bus2=BT51791.1.2.4 linecode=44_3 length=0.22287 units=km
New Line.SBT_20183 phases=3 bus1=BT51791.1.2.4 bus2=BT51801.1.2.4 linecode=44_3 length=0.1222 units=km
New Line.SBT_20137 phases=3 bus1=BT69871.1.2.4 bus2=BT69881.1.2.4 linecode=44_3 length=0.07778 units=km
New Line.SBT_20138 phases=3 bus1=BT69881.1.2.4 bus2=BT69891.1.2.4 linecode=44_3 length=0.06485 units=km
New Line.SBT_19750 phases=2 bus1=BT51861.1.4 bus2=BT51871.1.4 linecode=60_2 length=0.08469 units=km
New Line.SBT_2921 phases=2 bus1=BT51851.1.4 bus2=BT51861.1.4 linecode=60_2 length=0.10925 units=km
New Line.SBT_2922 phases=3 bus1=BT69691.1.2.4 bus2=BT69662.1.2.4 linecode=44_3 length=0.08773 units=km
New Line.SBT_20693 phases=3 bus1=ET2_1218.1.2.4 bus2=BT65231.1.2.4 linecode=44_3 length=0.07669 units=km
New Line.SBT_2136 phases=3 bus1=ET2_1280.1.2.4 bus2=BT33971.1.2.4 linecode=44_3 length=0.07708 units=km
New Line.SBT_2137 phases=3 bus1=BT33991.1.2.4 bus2=BT53221.1.2.4 linecode=44_3 length=0.13382 units=km
New Line.SBT_2138 phases=3 bus1=BT53221.1.2.4 bus2=BT257981.1.2.4 linecode=44_3 length=0.13893 units=km
New Line.SBT_19740 phases=3 bus1=BT33971.1.2.4 bus2=BT33991.1.2.4 linecode=44_3 length=0.09772 units=km
New Line.SBT_5307 phases=2 bus1=ET2_1280.1.4 bus2=BT497971.1.4 linecode=62_2 length=0.06379 units=km
New Line.SBT_5309 phases=2 bus1=BT497971.1.4 bus2=BT33951.1.4 linecode=62_2 length=0.05566 units=km
New Line.SBT_5310 phases=2 bus1=BT33951.1.4 bus2=BT497981.1.4 linecode=62_2 length=0.08884 units=km
New Line.SBT_4514 phases=3 bus1=BT34761.1.2.4 bus2=BT549501.1.2.4 linecode=59_3 length=0.03536 units=km
New Line.SBT_4574 phases=3 bus1=BT549501.1.2.4 bus2=BT549511.1.2.4 linecode=59_3 length=0.11662 units=km
New Line.SBT_15641 phases=2 bus1=BT34761.1.4 bus2=BT664601.1.4 linecode=60_2 length=0.03634 units=km
New Line.SBT_14205 phases=3 bus1=ET2_1281.1.2.4 bus2=BT34731.1.2.4 linecode=44_3 length=0.05101 units=km
New Line.SBT_14206 phases=3 bus1=BT34751.1.2.4 bus2=BT34761.1.2.4 linecode=44_3 length=0.08023 units=km
New Line.SBT_26555 phases=3 bus1=ET2_1281.1.2.4 bus2=BT34751.1.2.4 linecode=44_3 length=0.0908 units=km
New Line.SBT_26585 phases=2 bus1=BT664601.1.4 bus2=BT35511.1.4 linecode=60_2 length=0.06515 units=km
New Line.SBT_2337 phases=2 bus1=ET2_1737.1.4 bus2=BT69791.1.4 linecode=60_2 length=0.07892 units=km
New Line.SBT_2338 phases=3 bus1=ET2_1737.1.2.4 bus2=BT20691.1.2.4 linecode=59_3 length=0.04754 units=km
New Line.SBT_2346 phases=3 bus1=ET2_1737.1.2.4 bus2=BT69761.1.2.4 linecode=59_3 length=0.11498 units=km
New Line.SBT_2347 phases=3 bus1=BT69761.1.2.4 bus2=BT69741.1.2.4 linecode=44_3 length=0.09377 units=km
New Line.SBT_2348 phases=3 bus1=BT20691.1.2.4 bus2=BT69811.1.2.4 linecode=59_3 length=0.08963 units=km
New Line.SBT_2349 phases=3 bus1=BT69811.1.2.4 bus2=BT69821.1.2.4 linecode=59_3 length=0.12181 units=km
New Line.SBT_2350 phases=2 bus1=BT69831.1.4 bus2=BT69841.1.4 linecode=60_2 length=0.07128 units=km
New Line.SBT_19861 phases=3 bus1=BT69761.1.2.4 bus2=BT69771.1.2.4 linecode=44_3 length=0.10171 units=km
New Line.SBT_19862 phases=2 bus1=BT69741.2.4 bus2=BT69751.2.4 linecode=60_2 length=0.08683 units=km
New Line.SBT_19863 phases=3 bus1=BT69821.1.2.4 bus2=BT69831.1.2.4 linecode=59_3 length=0.15685 units=km
New Line.SBT_20084 phases=2 bus1=BT69831.2.4 bus2=BT69851.2.4 linecode=60_2 length=0.0724 units=km
New Line.SBT_28919 phases=2 bus1=BT69791.1.4 bus2=BT69801.1.4 linecode=60_2 length=0.06237 units=km
New Line.SBT_2743 phases=3 bus1=ET2_1831.1.2.4 bus2=BT49051.1.2.4 linecode=80_3 length=0.0483 units=km
New Line.SBT_13554 phases=2 bus1=BT65872.2.4 bus2=BT627441.2.4 linecode=60_2 length=0.07001 units=km
New Line.SBT_3266 phases=3 bus1=ET2_1936.1.2.4 bus2=BT65872.1.2.4 linecode=91_3 length=0.01063 units=km
New Line.SBT_3381 phases=4 bus1=BT55061.1.2.3.4 bus2=BT55071.1.2.3.4 linecode=73_4 length=0.05803 units=km
New Line.SBT_20405 phases=4 bus1=BT386951.1.2.3.4 bus2=BT386941.1.2.3.4 linecode=73_4 length=0.06836 units=km
New Line.SBT_20438 phases=4 bus1=ET2_2172.1.2.3.4 bus2=BT55061.1.2.3.4 linecode=73_4 length=0.08338 units=km
New Line.SBT_16090 phases=4 bus1=ET2_2172.1.2.3.4 bus2=BT386951.1.2.3.4 linecode=73_4 length=0.09986 units=km
New Line.SBT_2510 phases=2 bus1=BT338161.1.4 bus2=BT338171.1.4 linecode=62_2 length=0.09311 units=km
New Line.SBT_20450 phases=2 bus1=ET2_2215.2.4 bus2=BT337621.2.4 linecode=62_2 length=0.09101 units=km
New Line.SBT_20479 phases=2 bus1=BT337621.2.4 bus2=BT337611.2.4 linecode=62_2 length=0.08343 units=km
New Line.SBT_3404 phases=2 bus1=ET2_2215.1.4 bus2=BT337641.1.4 linecode=62_2 length=0.06395 units=km
New Line.SBT_3405 phases=2 bus1=BT337641.1.4 bus2=BT338161.1.4 linecode=62_2 length=0.07558 units=km
New Line.SBT_34907 phases=2 bus1=BT337621.2.4 bus2=BT806381.2.4 linecode=62_2 length=0.05235 units=km
New Line.SBT_3509 phases=3 bus1=BT655921.1.2.4 bus2=BT372771.1.2.4 linecode=59_3 length=0.05142 units=km
New Line.SBT_3511 phases=3 bus1=BT372771.1.2.4 bus2=BT372791.1.2.4 linecode=59_3 length=0.04472 units=km
New Line.SBT_20510 phases=2 bus1=ET2_2380.1.4 bus2=BT377061.1.4 linecode=60_2 length=0.08701 units=km
New Line.SBT_20511 phases=2 bus1=ET2_2380.1.4 bus2=BT372761.1.4 linecode=60_2 length=0.10405 units=km
New Line.SBT_20512 phases=2 bus1=BT377061.1.4 bus2=BT377071.1.4 linecode=60_2 length=0.13182 units=km
New Line.SBT_20518 phases=2 bus1=BT377071.1.4 bus2=BT377081.1.4 linecode=60_2 length=0.08006 units=km
New Line.SBT_15191 phases=3 bus1=ET2_2380.1.2.4 bus2=BT655921.1.2.4 linecode=59_3 length=0.11573 units=km
New Line.SBT_15192 phases=2 bus1=BT372791.1.4 bus2=BT655941.1.4 linecode=62_2 length=0.04492 units=km
New Line.SBT_1987 phases=3 bus1=ET2_2880.3.1.4 bus2=BT307401.3.1.4 linecode=59_3 length=0.02532 units=km
New Line.SBT_19657 phases=2 bus1=ET2_2880.2.4 bus2=BT307391.2.4 linecode=62_2 length=0.05315 units=km
New Line.SBT_19741 phases=2 bus1=BT53211.1.4 bus2=BT376581.1.4 linecode=60_2 length=0.05672 units=km
New Line.SBT_13055 phases=2 bus1=ET2_2942.1.4 bus2=BT53211.1.4 linecode=60_2 length=0.04205 units=km
New Line.SBT_21472 phases=2 bus1=BT497721.2.4 bus2=BT497731.2.4 linecode=62_2 length=0.0944 units=km
New Line.SBT_4768 phases=2 bus1=BT497731.2.4 bus2=BT497741.2.4 linecode=62_2 length=0.05622 units=km
New Line.SBT_4965 phases=2 bus1=BT497741.2.4 bus2=BT497751.2.4 linecode=62_2 length=0.10602 units=km
New Line.SBT_5193 phases=2 bus1=ET2_2942.2.4 bus2=BT497721.2.4 linecode=62_2 length=0.03406 units=km
New Line.SBT_25897 phases=2 bus1=ET2_2946.1.4 bus2=BT627831.1.4 linecode=60_2 length=0.07992 units=km
New Line.SBT_13014 phases=2 bus1=BT627831.1.4 bus2=BT627841.1.4 linecode=60_2 length=0.07517 units=km
New Line.SBT_14203 phases=3 bus1=ET2_3084.1.2.4 bus2=BT34641.1.2.4 linecode=44_3 length=0.06736 units=km
New Line.SBT_14204 phases=2 bus1=BT34641.1.4 bus2=BT257991.1.4 linecode=60_2 length=0.05099 units=km
New Line.SBT_26553 phases=3 bus1=ET2_3084.1.2.4 bus2=BT34631.1.2.4 linecode=44_3 length=0.10946 units=km
New Line.SBT_26554 phases=2 bus1=BT257991.1.4 bus2=BT34651.1.4 linecode=60_2 length=0.193 units=km
New Line.SBT_26086 phases=3 bus1=BT478741.1.2.4 bus2=BT478991.1.2.4 linecode=59_3 length=0.11236 units=km
New Line.SBT_25988 phases=2 bus1=BT478681.1.4 bus2=BT478691.1.4 linecode=62_2 length=0.10153 units=km
New Line.SBT_13788 phases=2 bus1=BT479001.1.4 bus2=BT649111.1.4 linecode=62_2 length=0.0614 units=km
New Line.SBT_13176 phases=2 bus1=ET2_3183.1.4 bus2=BT478681.1.4 linecode=62_2 length=0.07566 units=km
New Line.SBT_13351 phases=3 bus1=ET2_3183.1.2.4 bus2=BT478741.1.2.4 linecode=59_3 length=0.13103 units=km
New Line.SBT_13352 phases=3 bus1=BT478991.1.2.4 bus2=BT479001.1.2.4 linecode=59_3 length=0.0882 units=km
New Line.SBT_14057 phases=2 bus1=ET2_3184.2.4 bus2=BT622841.2.4 linecode=62_2 length=0.0494 units=km
New Line.SBT_26087 phases=2 bus1=ET2_3184.1.4 bus2=BT479011.1.4 linecode=62_2 length=0.04686 units=km
New Line.SBT_25471 phases=3 bus1=BT75901.1.2.4 bus2=BT18141.1.2.4 linecode=59_3 length=0.03688 units=km
New Line.SBT_22976 phases=3 bus1=ET2_3362.1.2.4 bus2=BT75901.1.2.4 linecode=59_3 length=0.03766 units=km
New Line.SBT_16021 phases=2 bus1=BT18141.1.4 bus2=BT18172.1.4 linecode=62_2 length=0.07403 units=km
New Line.SBT_12237 phases=3 bus1=BT18141.1.2.4 bus2=BT18151.1.2.4 linecode=59_3 length=0.07237 units=km
New Line.SBT_25572 phases=2 bus1=ET2_3401.2.4 bus2=BT55191.2.4 linecode=62_2 length=0.05408 units=km
New Line.SBT_28099 phases=3 bus1=BT724561.1.2.4 bus2=BT724571.1.2.4 linecode=88_3 length=0.04383 units=km
New Line.SBT_16956 phases=4 bus1=ET2_3461.1.2.3.4 bus2=BT724551.1.2.3.4 linecode=74_4 length=0.06006 units=km
New Line.SBT_16957 phases=3 bus1=BT724551.1.2.4 bus2=BT724561.1.2.4 linecode=88_3 length=0.05964 units=km
New Line.SBT_14276 phases=2 bus1=ET2_3510.1.4 bus2=BT622831.1.4 linecode=77_2 length=0.039 units=km
New Line.SBT_13865 phases=2 bus1=ET2_3692.1.4 bus2=BT603541.1.4 linecode=62_2 length=0.03672 units=km
New Line.SBT_32969 phases=3 bus1=ET2_3969.1.2.4 bus2=BT65131.1.2.4 linecode=44_3 length=0.14195 units=km
New Line.SBT_32970 phases=3 bus1=BT65131.1.2.4 bus2=BT65141.1.2.4 linecode=44_3 length=0.07908 units=km
New Line.SBT_32971 phases=3 bus1=BT65141.1.2.4 bus2=BT65151.1.2.4 linecode=44_3 length=0.08395 units=km
New Line.SBT_32972 phases=3 bus1=BT65151.1.2.4 bus2=BT65161.1.2.4 linecode=44_3 length=0.06912 units=km
New Line.SBT_32974 phases=3 bus1=BT65131.1.2.4 bus2=BT397982.1.2.4 linecode=44_3 length=0.12442 units=km
New Line.SBT_32975 phases=3 bus1=BT397982.1.2.4 bus2=BT660441.1.2.4 linecode=44_3 length=0.03758 units=km
New Line.SBT_15308 phases=4 bus1=BT647101.1.2.3.4 bus2=BT533751.1.2.3.4 linecode=75_4 length=0.055 units=km
New Line.SBT_26885 phases=4 bus1=BT533751.1.2.3.4 bus2=BT921.1.2.3.4 linecode=75_4 length=0.06297 units=km
New Line.SBT_27169 phases=4 bus1=ET2_4049.1.2.3.4 bus2=BT647101.1.2.3.4 linecode=75_4 length=0.0214 units=km
New Line.SBT_15564 phases=2 bus1=ET2_4255.1.4 bus2=BT280781.1.4 linecode=62_2 length=0.04837 units=km
New Line.SBT_29261 phases=4 bus1=ET2_448.1.2.3.4 bus2=BT749851.1.2.3.4 linecode=97_4 length=0.026 units=km
New Line.SBT_29262 phases=4 bus1=BT749851.1.2.3.4 bus2=BT749861.1.2.3.4 linecode=97_4 length=0.085 units=km
New Line.SBT_29263 phases=4 bus1=BT749861.1.2.3.4 bus2=BT749871.1.2.3.4 linecode=97_4 length=0.085 units=km
New Line.SBT_20587 phases=4 bus1=BT56011.1.2.3.4 bus2=BT56001.1.2.3.4 linecode=75_4 length=0.10559 units=km
New Line.SBT_18360 phases=4 bus1=BT56001.1.2.3.4 bus2=BT55991.1.2.3.4 linecode=75_4 length=0.08676 units=km
New Line.SBT_33606 phases=4 bus1=ET2_449.1.2.3.4 bus2=BT792981.1.2.3.4 linecode=16_4 length=0.04958 units=km
New Line.SBT_3895 phases=4 bus1=ET2_449.1.2.3.4 bus2=BT56011.1.2.3.4 linecode=75_4 length=0.10429 units=km
New Line.SBT_3267 phases=4 bus1=BT65901.1.2.3.4 bus2=BT65911.1.2.3.4 linecode=73_4 length=0.07441 units=km
New Line.SBT_16594 phases=4 bus1=ET2_4550.1.2.3.4 bus2=BT65901.1.2.3.4 linecode=73_4 length=0.08711 units=km
New Line.SBT_16595 phases=3 bus1=ET2_4550.1.2.4 bus2=BT65871.1.2.4 linecode=91_3 length=0.1212 units=km
...