examples/feeders/1_QUEB_1/009_segmentoRamalBT.dss
New Line.RBT_205645 phases=2 bus1=ET2_1114.2.4 bus2=UC205645.2.4 linecode=50_2 length=0.02051 units=km
New Line.RBT_205648 phases=2 bus1=BT56011.1.4 bus2=UC205648.1.4 linecode=50_2 length=0.009 units=km
New Line.RBT_205649 phases=4 bus1=BT55991.1.2.3.4 bus2=UC205649.1.2.3.4 linecode=51_4 length=0.01 units=km
New Line.RBT_205650 phases=2 bus1=BT55071.1.4 bus2=UC205650.1.4 linecode=50_2 length=0.012 units=km
New Line.RBT_205651 phases=4 bus1=BT55061.1.2.3.4 bus2=UC205651.1.2.3.4 linecode=51_4 length=0.0075 units=km
New Line.RBT_205652 phases=2 bus1=ET2_2172.1.4 bus2=UC205652.1.4 linecode=50_2 length=0.011 units=km
New Line.RBT_205653 phases=4 bus1=ET2_448.1.2.3.4 bus2=UC205653.1.2.3.4 linecode=51_4 length=0.0098 units=km
New Line.RBT_205654 phases=2 bus1=BT386951.1.4 bus2=UC205654.1.4 linecode=50_2 length=0.01835 units=km
New Line.RBT_205655 phases=2 bus1=BT627841.1.4 bus2=UC205655.1.4 linecode=50_2 length=0.014 units=km
New Line.RBT_205658 phases=2 bus1=BT19761.1.4 bus2=UC205658.1.4 linecode=50_2 length=0.006 units=km
New Line.RBT_205659 phases=4 bus1=BT19781.1.2.3.4 bus2=UC205659.1.2.3.4 linecode=51_4 length=0.017 units=km
New Line.RBT_205662 phases=2 bus1=BT49051.1.4 bus2=UC205662.1.4 linecode=105_2 length=0.023 units=km
New Line.RBT_205664 phases=3 bus1=BT68731.1.2.4 bus2=UC205664.1.2.4 linecode=83_3 length=0.021 units=km
New Line.RBT_205666 phases=4 bus1=BT772251.1.2.3.4 bus2=UC205666.1.2.3.4 linecode=51_4 length=0.03 units=km
New Line.RBT_205668 phases=2 bus1=BT68861.1.4 bus2=UC205668.1.4 linecode=105_2 length=0.014 units=km
New Line.RBT_205669 phases=2 bus1=ET2_1149.2.4 bus2=UC205669.2.4 linecode=50_2 length=0.027 units=km
New Line.RBT_205670 phases=2 bus1=ET2_1149.2.4 bus2=UC205670.2.4 linecode=50_2 length=0.03 units=km
New Line.RBT_205671 phases=2 bus1=BT69771.2.4 bus2=UC205671.2.4 linecode=50_2 length=0.005 units=km
New Line.RBT_205672 phases=2 bus1=BT69801.1.4 bus2=UC205672.1.4 linecode=50_2 length=0.023 units=km
New Line.RBT_205673 phases=2 bus1=BT69851.2.4 bus2=UC205673.2.4 linecode=50_2 length=0.018 units=km
New Line.RBT_205675 phases=2 bus1=BT69751.2.4 bus2=UC205675.2.4 linecode=108_2 length=0.026 units=km
New Line.RBT_205680 phases=4 bus1=ET2_2880.1.2.3.4 bus2=UC205680.1.2.3.4 linecode=51_4 length=0.015 units=km
New Line.RBT_205681 phases=3 bus1=ET2_705.1.2.4 bus2=UC205681.1.2.4 linecode=83_3 length=0.006 units=km
New Line.RBT_205687 phases=2 bus1=BT67591.1.4 bus2=UC205687.1.4 linecode=50_2 length=0.008 units=km
New Line.RBT_205689 phases=2 bus1=BT51831.1.4 bus2=UC205689.1.4 linecode=105_2 length=0.005 units=km
New Line.RBT_205691 phases=3 bus1=BT660441.1.2.4 bus2=UC205691.1.2.4 linecode=83_3 length=0.02313 units=km
New Line.RBT_205695 phases=2 bus1=BT65101.1.4 bus2=UC205695.1.4 linecode=50_2 length=0.021 units=km
New Line.RBT_205699 phases=2 bus1=BT5051.1.4 bus2=UC205699.1.4 linecode=50_2 length=0.02 units=km
New Line.RBT_205700 phases=2 bus1=BT5071.1.4 bus2=UC205700.1.4 linecode=50_2 length=0.027 units=km
New Line.RBT_205703 phases=2 bus1=ET2_2705.1.4 bus2=UC205703.1.4 linecode=50_2 length=0.03 units=km
New Line.RBT_205706 phases=3 bus1=BT65051.1.2.4 bus2=UC205706.1.2.4 linecode=83_3 length=0.014 units=km
New Line.RBT_205707 phases=2 bus1=BT65021.1.4 bus2=UC205707.1.4 linecode=50_2 length=0.03 units=km
New Line.RBT_205709 phases=2 bus1=BT26631.1.4 bus2=UC205709.1.4 linecode=50_2 length=0.021 units=km
New Line.RBT_205710 phases=4 bus1=BT65911.1.2.3.4 bus2=UC205710.1.2.3.4 linecode=51_4 length=0.011 units=km
New Line.RBT_205711 phases=2 bus1=ET2_3255.2.4 bus2=UC205711.2.4 linecode=50_2 length=0.01827 units=km
New Line.RBT_205713 phases=2 bus1=ET2_708.2.4 bus2=UC205713.2.4 linecode=50_2 length=0.01616 units=km
New Line.RBT_205717 phases=4 bus1=BT921.1.2.3.4 bus2=UC205717.1.2.3.4 linecode=51_4 length=0.014 units=km
New Line.RBT_205719 phases=2 bus1=BT38371.2.4 bus2=UC205719.2.4 linecode=105_2 length=0.03 units=km
New Line.RBT_205722 phases=4 bus1=BT39161.1.2.3.4 bus2=UC205722.1.2.3.4 linecode=51_4 length=0.012 units=km
New Line.RBT_205727 phases=2 bus1=BT34761.1.4 bus2=UC205727.1.4 linecode=50_2 length=0.012 units=km
New Line.RBT_205729 phases=3 bus1=BT34631.1.2.4 bus2=UC205729.1.2.4 linecode=83_3 length=0.022 units=km
New Line.RBT_205730 phases=2 bus1=BT34641.2.4 bus2=UC205730.2.4 linecode=50_2 length=0.017 units=km
New Line.RBT_205731 phases=2 bus1=BT34641.1.4 bus2=UC205731.1.4 linecode=50_2 length=0.03 units=km
New Line.RBT_205734 phases=3 bus1=BT33971.1.2.4 bus2=UC205734.1.2.4 linecode=83_3 length=0.013 units=km
New Line.RBT_205735 phases=3 bus1=BT307401.3.1.4 bus2=UC205735.3.1.4 linecode=83_3 length=0.019 units=km
New Line.RBT_205737 phases=2 bus1=ET2_1280.2.4 bus2=UC205737.2.4 linecode=50_2 length=0.01 units=km
New Line.RBT_205739 phases=2 bus1=ET2_3401.1.4 bus2=UC205739.1.4 linecode=50_2 length=0.00927 units=km
New Line.RBT_205744 phases=4 bus1=ET2_715.1.2.3.4 bus2=UC205744.1.2.3.4 linecode=51_4 length=0.03 units=km
...